<?xml version="1.0" encoding="UTF-8"?>

<mule xmlns:http="http://www.mulesoft.org/schema/mule/http" xmlns:ee="http://www.mulesoft.org/schema/mule/ee/core"
	xmlns:file="http://www.mulesoft.org/schema/mule/file"
	xmlns="http://www.mulesoft.org/schema/mule/core" xmlns:doc="http://www.mulesoft.org/schema/mule/documentation" xmlns:xsi="http://www.w3.org/2001/XMLSchema-instance" xsi:schemaLocation="http://www.mulesoft.org/schema/mule/core http://www.mulesoft.org/schema/mule/core/current/mule.xsd
http://www.mulesoft.org/schema/mule/file http://www.mulesoft.org/schema/mule/file/current/mule-file.xsd
http://www.mulesoft.org/schema/mule/ee/core http://www.mulesoft.org/schema/mule/ee/core/current/mule-ee.xsd
http://www.mulesoft.org/schema/mule/http http://www.mulesoft.org/schema/mule/http/current/mule-http.xsd">
	<file:config name="File_Config" doc:name="File Config" doc:id="d68deed2-48a6-4cce-9118-0513fab4da1e" />
	<flow name="scheduler_flowFlow" doc:id="522c987a-f330-4794-8e8e-2866a38c5bec" >
		<scheduler doc:name="Scheduler" doc:id="aa751442-3829-444e-994a-5edfc5d39a0c" >
			<scheduling-strategy >
				<fixed-frequency frequency="2" timeUnit="MINUTES"/>
			</scheduling-strategy>
		</scheduler>
		<file:read doc:name="Read" doc:id="258bc274-de27-4776-a525-cb14066f2e7e" config-ref="File_Config" path="C:\Users\Administrator\Documents\Mulesoft_files\papi_employee.json"/>
		<ee:transform doc:name="Transform Message" doc:id="354c5e8c-f953-44de-bca4-05763ea8147d" >
			<ee:message >
				<ee:set-payload ><![CDATA[%dw 2.0
output application/json
---
payload]]></ee:set-payload>
			</ee:message>
		</ee:transform>
		<http:request method="POST" doc:name="Request" doc:id="c37138b0-ece2-4705-afc1-af07c1ca450b" config-ref="HTTP_Request_configuration" path="/empPersonal"/>
	</flow>
</mule>
